
This summary file was generated by TurbSim (v2.00.07a-bjj, 14-Jun-2016) on 26-Oct-2023 at 15:51:34.


ERROR:  ReadInputFile:OpenFInpFile:The input file, "turbsim", was not found.

ABORTING PROGRAM.
